Version 4.1
SHEET 1 1604 680
WIRE 256 0 32 0
WIRE 256 48 256 0
WIRE 256 48 176 48
WIRE 352 48 256 48
WIRE 176 64 176 48
WIRE 352 64 352 48
WIRE 32 112 32 80
WIRE 352 160 352 144
WIRE 512 160 352 160
WIRE 672 160 576 160
WIRE 32 192 -48 192
WIRE 176 192 176 144
WIRE 176 192 96 192
WIRE 288 192 176 192
WIRE -48 208 -48 192
WIRE 288 240 288 192
WIRE 304 240 288 240
WIRE 176 256 176 192
WIRE 480 256 352 256
WIRE 480 272 480 256
WIRE 672 272 672 160
WIRE -48 320 -48 288
WIRE 176 352 176 336
WIRE 272 352 176 352
WIRE 352 352 352 336
WIRE 352 352 272 352
WIRE 480 352 480 336
WIRE 272 368 272 352
WIRE 672 368 672 352
FLAG 272 368 0
FLAG -48 320 0
FLAG 32 112 0
FLAG 480 352 0
FLAG 672 368 0
SYMBOL voltage -48 192 R0
WINDOW 123 0 0 Left 0
WINDOW 39 0 0 Left 0
SYMATTR InstName VIn
SYMATTR Value SINE(0 200m 1k)
SYMBOL voltage 32 -16 R0
WINDOW 123 0 0 Left 0
WINDOW 39 0 0 Left 0
SYMATTR InstName VDD
SYMATTR Value 12
SYMBOL res 160 48 R0
SYMATTR InstName R1
SYMATTR Value 570k
SYMBOL res 160 240 R0
SYMATTR InstName R2
SYMATTR Value 100k
SYMBOL cap 96 176 R90
WINDOW 0 0 32 VBottom 2
WINDOW 3 32 32 VTop 2
SYMATTR InstName C1
SYMATTR Value 1µ
SYMBOL res 336 240 R0
SYMATTR InstName RS
SYMATTR Value 470
SYMBOL res 336 48 R0
SYMATTR InstName RD
SYMATTR Value 22k
SYMBOL cap 464 272 R0
SYMATTR InstName CS
SYMATTR Value 220µ
SYMBOL res 656 256 R0
SYMATTR InstName RL
SYMATTR Value 10k
SYMBOL cap 576 144 R90
WINDOW 0 0 32 VBottom 2
WINDOW 3 32 32 VTop 2
SYMATTR InstName C2
SYMATTR Value 100n
SYMBOL Contrib\\Toshiba\\lvmos\\T2N7002AK_G0_00 304 160 R0
SYMATTR InstName U2
TEXT -80 392 Left 2 !.tran 5m
TEXT 552 -48 Left 2 ;Gauthum
TEXT 552 -16 Left 2 ;25DIPEE05
